Version 4
SHEET 1 3060 680
WIRE -480 -224 -496 -224
WIRE -336 -224 -352 -224
WIRE -496 -160 -496 -224
WIRE -352 -160 -352 -224
WIRE -496 -48 -496 -80
WIRE -352 -48 -352 -80
WIRE 2560 -16 2352 -16
WIRE 2896 -16 2624 -16
WIRE 304 128 256 128
WIRE 1216 128 1168 128
WIRE -160 144 -336 144
WIRE -80 144 -160 144
WIRE 128 144 0 144
WIRE 1040 144 944 144
WIRE 2000 144 1952 144
WIRE 2768 144 2720 144
WIRE 304 160 256 160
WIRE 1216 160 1168 160
WIRE 1488 160 1392 160
WIRE 1616 160 1568 160
WIRE 1728 160 1696 160
WIRE 1824 160 1728 160
WIRE 2256 160 2208 160
WIRE 2352 160 2352 -16
WIRE 2352 160 2336 160
WIRE 2384 160 2352 160
WIRE 2496 160 2464 160
WIRE 2592 160 2496 160
WIRE 128 176 48 176
WIRE 1040 176 992 176
WIRE 2000 176 1952 176
WIRE 2768 176 2720 176
WIRE -160 192 -160 144
WIRE 336 192 256 192
WIRE 608 192 336 192
WIRE 880 192 688 192
WIRE 944 192 944 144
WIRE 944 192 880 192
WIRE 1216 192 1168 192
WIRE 1392 192 1392 160
WIRE 1392 192 1216 192
WIRE 1824 192 1792 192
WIRE 2592 192 2560 192
WIRE 2128 208 1952 208
WIRE 2208 208 2208 160
WIRE 2208 208 2128 208
WIRE 2896 208 2896 -16
WIRE 2896 208 2720 208
WIRE 2992 208 2896 208
WIRE 1728 240 1728 160
WIRE 2496 240 2496 160
WIRE 2992 240 2992 208
WIRE -336 256 -336 144
WIRE -160 288 -160 272
WIRE 608 288 560 288
WIRE 880 288 880 192
WIRE 880 288 688 288
WIRE 1792 288 1792 192
WIRE 2128 288 2128 208
WIRE 2128 288 1792 288
WIRE 992 320 992 176
WIRE 1072 320 992 320
WIRE 1216 320 1216 192
WIRE 1216 320 1152 320
WIRE 48 336 48 176
WIRE 144 336 48 336
WIRE 336 336 336 192
WIRE 336 336 224 336
WIRE 992 336 992 320
WIRE 2560 336 2560 192
WIRE 2896 336 2896 208
WIRE 2896 336 2560 336
WIRE 1728 352 1728 304
WIRE 2496 352 2496 304
WIRE 2992 352 2992 320
WIRE -336 368 -336 336
WIRE 48 368 48 336
WIRE 560 400 560 288
WIRE 992 448 992 416
WIRE 48 480 48 448
WIRE 560 512 560 480
FLAG -496 -48 0
FLAG -352 -48 0
FLAG -480 -224 VCC
IOPIN -480 -224 BiDir
FLAG -336 -224 VEE
IOPIN -336 -224 BiDir
FLAG 304 128 VCC
IOPIN 304 128 BiDir
FLAG 304 160 VEE
IOPIN 304 160 BiDir
FLAG -336 368 0
FLAG 48 480 0
FLAG -160 288 0
FLAG 992 448 0
FLAG 560 512 0
FLAG 1216 128 VCC
IOPIN 1216 128 BiDir
FLAG 1216 160 VEE
IOPIN 1216 160 BiDir
FLAG 1728 352 0
FLAG 2000 144 VCC
IOPIN 2000 144 BiDir
FLAG 2000 176 VEE
IOPIN 2000 176 BiDir
FLAG 2496 352 0
FLAG 2768 144 VCC
IOPIN 2768 144 BiDir
FLAG 2768 176 VEE
IOPIN 2768 176 BiDir
FLAG 2992 352 0
SYMBOL user_files\\OPA2156 192 160 R0
SYMATTR InstName U1
SYMBOL voltage -496 -176 R0
WINDOW 123 0 0 Left 0
WINDOW 39 0 0 Left 0
SYMATTR InstName V1
SYMATTR Value 5
SYMBOL voltage -352 -176 R0
WINDOW 123 0 0 Left 0
WINDOW 39 0 0 Left 0
SYMATTR InstName V2
SYMATTR Value -5
SYMBOL voltage -336 240 R0
WINDOW 123 24 124 Left 2
WINDOW 39 0 0 Left 0
SYMATTR Value2 AC 1
SYMATTR InstName V3
SYMATTR Value SINE(0 0.316 1k)
SYMBOL res 16 128 R90
WINDOW 0 0 56 VBottom 2
WINDOW 3 32 56 VTop 2
SYMATTR InstName R_in
SYMATTR Value 0
SYMBOL res 64 464 R180
WINDOW 0 36 76 Left 2
WINDOW 3 36 40 Left 2
SYMATTR InstName R2
SYMATTR Value 360
SYMBOL res 128 352 R270
WINDOW 0 32 56 VTop 2
WINDOW 3 0 56 VBottom 2
SYMATTR InstName R_fb
SYMATTR Value 1.8k
SYMBOL user_files\\OPA2156 1104 160 R0
SYMATTR InstName U2
SYMBOL res -144 288 R180
WINDOW 0 36 76 Left 2
WINDOW 3 36 40 Left 2
SYMATTR InstName R1
SYMATTR Value 47k
SYMBOL res 592 304 R270
WINDOW 0 32 56 VTop 2
WINDOW 3 0 56 VBottom 2
SYMATTR InstName R3
SYMATTR Value 10k
SYMBOL res 1008 432 R180
WINDOW 0 36 76 Left 2
WINDOW 3 36 40 Left 2
SYMATTR InstName R4
SYMATTR Value 10k
SYMBOL res 592 208 R270
WINDOW 0 32 56 VTop 2
WINDOW 3 0 56 VBottom 2
SYMATTR InstName R5
SYMATTR Value 10k
SYMBOL voltage 560 384 R0
WINDOW 123 0 0 Left 0
WINDOW 39 0 0 Left 0
SYMATTR InstName V-ref
SYMATTR Value 2.5
SYMBOL res 1056 336 R270
WINDOW 0 32 56 VTop 2
WINDOW 3 0 56 VBottom 2
SYMATTR InstName R7
SYMATTR Value 10k
SYMBOL user_files\\OPA2156 1888 176 R0
SYMATTR InstName U3
SYMBOL res 1472 176 R270
WINDOW 0 32 56 VTop 2
WINDOW 3 0 56 VBottom 2
SYMATTR InstName R8
SYMATTR Value 10k
SYMBOL res 1600 176 R270
WINDOW 0 32 56 VTop 2
WINDOW 3 0 56 VBottom 2
SYMATTR InstName R9
SYMATTR Value 0
SYMBOL cap 1712 240 R0
SYMATTR InstName C1
SYMATTR Value 300p
SYMBOL user_files\\OPA2156 2656 176 R0
SYMATTR InstName U4
SYMBOL res 2368 176 R270
WINDOW 0 32 56 VTop 2
WINDOW 3 0 56 VBottom 2
SYMATTR InstName R6
SYMATTR Value 22k
SYMBOL cap 2480 240 R0
SYMATTR InstName C3
SYMATTR Value 110p
SYMBOL cap 2624 -32 R90
WINDOW 0 0 32 VBottom 2
WINDOW 3 32 32 VTop 2
SYMATTR InstName C4
SYMATTR Value 270p
SYMBOL res 2240 176 R270
WINDOW 0 32 56 VTop 2
WINDOW 3 0 56 VBottom 2
SYMATTR InstName R10
SYMATTR Value 12k
SYMBOL res 2976 224 R0
SYMATTR InstName R11
SYMATTR Value 10k
TEXT 160 584 Left 2 !.ac oct 200 1 500k
TEXT 136 -24 Left 2 ;Input Buffer\nGain = 6dB
TEXT 1048 -32 Left 2 ;Unity Gain, Adds Offset\nFrom: 0V center\nTo: 2.5V center
TEXT 160 616 Left 2 ;.tran 10m
